*SPEF "ieee 1481-1999"
*DESIGN "lib_sample"
*DATE "11:11:11 Fri 11 11, 1111"
*VENDOR "OpenRCX"
*PROGRAM "Parallel Extraction"
*VERSION "1.0"
*DESIGN_FLOW "NAME_SCOPE LOCAL" "PIN_CAP NONE"
*DIVIDER /
*DELIMITER :
*BUS_DELIMITER []
*T_UNIT 1 NS
*C_UNIT 1 PF
*R_UNIT 1 OHM
*L_UNIT 1 HENRY

*NAME_MAP
*1 BYPASS[0]
*2 BYPASS[1]
*3 BYPASS[2]
*4 CLK
*5 CLK_OUT_DIV
*6 CLK_OUT_G
*7 CNTR_OUT1[0]
*8 CNTR_OUT1[1]
*9 CNTR_OUT1[2]
*10 CNTR_OUT2[0]
*11 CNTR_OUT2[1]
*12 CNTR_OUT2[2]
*13 CNTR_OUT3[0]
*14 CNTR_OUT3[1]
*15 CNTR_OUT3[2]
*16 EN_G
*17 RST_B
*18 SELECT_3
*21 CNTR3\[0\]
*22 CNTR3\[1\]
*23 CNTR3\[2\]
*24 _00_
*25 _01_
*26 _02_
*27 _03_
*28 _04_
*29 _05_
*30 _06_
*31 _07_
*32 _08_
*33 _09_
*34 _10_
*35 _11_
*36 _12_
*37 _13_
*38 _14_
*39 _15_
*40 clknet_0_CLK
*41 clknet_1_0__leaf_CLK
*42 clknet_1_1__leaf_CLK
*43 net1
*44 net10
*45 net11
*46 net12
*47 net2
*48 net3
*49 net4
*50 net5
*51 net6
*52 net7
*53 net8
*54 net9
*55 ANTENNA__16__A
*56 ANTENNA__16__B
*57 ANTENNA__17__A0
*58 ANTENNA__17__A1
*59 ANTENNA__17__S
*60 ANTENNA__18__A0
*61 ANTENNA__18__A1
*62 ANTENNA__18__S
*63 ANTENNA__19__A0
*64 ANTENNA__19__A1
*65 ANTENNA__19__S
*66 ANTENNA__20__A
*67 ANTENNA__21__A
*68 ANTENNA__22__A
*69 ANTENNA__23__A
*70 ANTENNA__23__B
*71 ANTENNA__24__A
*72 ANTENNA__24__B
*73 ANTENNA__25__A
*74 ANTENNA__25__B
*75 ANTENNA__26__A
*76 ANTENNA__26__B
*77 ANTENNA__27__A
*78 ANTENNA__27__B
*79 ANTENNA__28__A
*80 ANTENNA__28__B
*81 ANTENNA__29__A
*82 ANTENNA__29__B
*83 ANTENNA__30__A
*84 ANTENNA__30__B
*85 ANTENNA__31__A
*86 ANTENNA__31__B
*87 ANTENNA__32__A
*88 ANTENNA__32__B
*89 ANTENNA__33__A
*90 ANTENNA__33__B
*91 ANTENNA__34__A
*92 ANTENNA__34__B
*93 ANTENNA__35__A
*94 ANTENNA__36__CLK
*95 ANTENNA__36__D
*96 ANTENNA__37__CLK
*97 ANTENNA__37__D
*98 ANTENNA__37__RESET_B
*99 ANTENNA__38__CLK
*100 ANTENNA__38__D
*101 ANTENNA__38__RESET_B
*102 ANTENNA__39__CLK
*103 ANTENNA__39__D
*104 ANTENNA__39__RESET_B
*105 ANTENNA__40__CLK
*106 ANTENNA__40__D
*107 ANTENNA__40__RESET_B
*108 ANTENNA__41__CLK
*109 ANTENNA__41__D
*110 ANTENNA__41__RESET_B
*111 ANTENNA__42__CLK
*112 ANTENNA__42__D
*113 ANTENNA__42__RESET_B
*114 ANTENNA__43__CLK
*115 ANTENNA__43__D
*116 ANTENNA__44__CLK
*117 ANTENNA__44__D
*118 ANTENNA__45__CLK
*119 ANTENNA__45__D
*120 ANTENNA_clkbuf_0_CLK_A
*121 ANTENNA_clkbuf_1_0__f_CLK_A
*122 ANTENNA_clkbuf_1_1__f_CLK_A
*123 ANTENNA_output10_A
*124 ANTENNA_output11_A
*125 ANTENNA_output1_A
*126 ANTENNA_output2_A
*127 ANTENNA_output3_A
*128 ANTENNA_output4_A
*129 ANTENNA_output5_A
*130 ANTENNA_output6_A
*131 ANTENNA_output7_A
*132 ANTENNA_output8_A
*133 ANTENNA_output9_A
*134 ANTENNA_repeater12_A
*135 FILLER_0_11
*136 FILLER_0_111
*137 FILLER_0_113
*138 FILLER_0_125
*139 FILLER_0_129
*140 FILLER_0_132
*141 FILLER_0_146
*142 FILLER_0_152
*143 FILLER_0_158
*144 FILLER_0_164
*145 FILLER_0_17
*146 FILLER_0_171
*147 FILLER_0_179
*148 FILLER_0_186
*149 FILLER_0_25
*150 FILLER_0_29
*151 FILLER_0_3
*152 FILLER_0_41
*153 FILLER_0_47
*154 FILLER_0_55
*155 FILLER_0_57
*156 FILLER_0_69
*157 FILLER_0_81
*158 FILLER_0_85
*159 FILLER_0_93
*160 FILLER_0_99
*161 FILLER_10_118
*162 FILLER_10_126
*163 FILLER_10_132
*164 FILLER_10_141
*165 FILLER_10_15
*166 FILLER_10_153
*167 FILLER_10_165
*168 FILLER_10_177
*169 FILLER_10_189
*170 FILLER_10_27
*171 FILLER_10_29
*172 FILLER_10_3
*173 FILLER_10_32
*174 FILLER_10_56
*175 FILLER_10_80
*176 FILLER_10_87
*177 FILLER_10_91
*178 FILLER_10_94
*179 FILLER_11_103
*180 FILLER_11_108
*181 FILLER_11_122
*182 FILLER_11_128
*183 FILLER_11_134
*184 FILLER_11_146
*185 FILLER_11_15
*186 FILLER_11_158
*187 FILLER_11_166
*188 FILLER_11_169
*189 FILLER_11_181
*190 FILLER_11_189
*191 FILLER_11_23
*192 FILLER_11_28
*193 FILLER_11_3
*194 FILLER_11_52
*195 FILLER_11_62
*196 FILLER_11_66
*197 FILLER_11_69
*198 FILLER_11_93
*199 FILLER_11_99
*200 FILLER_12_11
*201 FILLER_12_122
*202 FILLER_12_128
*203 FILLER_12_134
*204 FILLER_12_143
*205 FILLER_12_155
*206 FILLER_12_167
*207 FILLER_12_17
*208 FILLER_12_179
*209 FILLER_12_187
*210 FILLER_12_25
*211 FILLER_12_29
*212 FILLER_12_3
*213 FILLER_12_41
*214 FILLER_12_44
*215 FILLER_12_50
*216 FILLER_12_59
*217 FILLER_12_70
*218 FILLER_12_76
*219 FILLER_12_85
*220 FILLER_12_89
*221 FILLER_12_92
*222 FILLER_12_98
*223 FILLER_13_108
*224 FILLER_13_120
*225 FILLER_13_129
*226 FILLER_13_135
*227 FILLER_13_141
*228 FILLER_13_147
*229 FILLER_13_15
*230 FILLER_13_153
*231 FILLER_13_165
*232 FILLER_13_169
*233 FILLER_13_181
*234 FILLER_13_189
*235 FILLER_13_27
*236 FILLER_13_3
*237 FILLER_13_39
*238 FILLER_13_43
*239 FILLER_13_46
*240 FILLER_13_52
*241 FILLER_13_57
*242 FILLER_13_60
*243 FILLER_13_68
*244 FILLER_13_74
*245 FILLER_13_86
*246 FILLER_13_89
*247 FILLER_13_95
*248 FILLER_14_118
*249 FILLER_14_125
*250 FILLER_14_131
*251 FILLER_14_139
*252 FILLER_14_141
*253 FILLER_14_15
*254 FILLER_14_152
*255 FILLER_14_158
*256 FILLER_14_170
*257 FILLER_14_182
*258 FILLER_14_27
*259 FILLER_14_29
*260 FILLER_14_3
*261 FILLER_14_41
*262 FILLER_14_53
*263 FILLER_14_65
*264 FILLER_14_77
*265 FILLER_14_83
*266 FILLER_14_85
*267 FILLER_14_91
*268 FILLER_14_94
*269 FILLER_15_103
*270 FILLER_15_111
*271 FILLER_15_118
*272 FILLER_15_124
*273 FILLER_15_130
*274 FILLER_15_136
*275 FILLER_15_144
*276 FILLER_15_148
*277 FILLER_15_15
*278 FILLER_15_160
*279 FILLER_15_169
*280 FILLER_15_181
*281 FILLER_15_189
*282 FILLER_15_27
*283 FILLER_15_3
*284 FILLER_15_39
*285 FILLER_15_51
*286 FILLER_15_55
*287 FILLER_15_57
*288 FILLER_15_69
*289 FILLER_15_81
*290 FILLER_15_93
*291 FILLER_16_109
*292 FILLER_16_121
*293 FILLER_16_133
*294 FILLER_16_139
*295 FILLER_16_141
*296 FILLER_16_15
*297 FILLER_16_153
*298 FILLER_16_165
*299 FILLER_16_177
*300 FILLER_16_183
*301 FILLER_16_186
*302 FILLER_16_27
*303 FILLER_16_29
*304 FILLER_16_3
*305 FILLER_16_39
*306 FILLER_16_51
*307 FILLER_16_63
*308 FILLER_16_75
*309 FILLER_16_83
*310 FILLER_16_85
*311 FILLER_16_97
*312 FILLER_17_105
*313 FILLER_17_111
*314 FILLER_17_113
*315 FILLER_17_125
*316 FILLER_17_137
*317 FILLER_17_149
*318 FILLER_17_15
*319 FILLER_17_161
*320 FILLER_17_167
*321 FILLER_17_169
*322 FILLER_17_181
*323 FILLER_17_186
*324 FILLER_17_27
*325 FILLER_17_3
*326 FILLER_17_32
*327 FILLER_17_52
*328 FILLER_17_57
*329 FILLER_17_69
*330 FILLER_17_81
*331 FILLER_17_93
*332 FILLER_18_109
*333 FILLER_18_121
*334 FILLER_18_133
*335 FILLER_18_139
*336 FILLER_18_141
*337 FILLER_18_15
*338 FILLER_18_153
*339 FILLER_18_165
*340 FILLER_18_177
*341 FILLER_18_189
*342 FILLER_18_27
*343 FILLER_18_29
*344 FILLER_18_3
*345 FILLER_18_41
*346 FILLER_18_47
*347 FILLER_18_59
*348 FILLER_18_71
*349 FILLER_18_83
*350 FILLER_18_85
*351 FILLER_18_97
*352 FILLER_19_105
*353 FILLER_19_111
*354 FILLER_19_113
*355 FILLER_19_125
*356 FILLER_19_137
*357 FILLER_19_149
*358 FILLER_19_15
*359 FILLER_19_161
*360 FILLER_19_167
*361 FILLER_19_169
*362 FILLER_19_181
*363 FILLER_19_189
*364 FILLER_19_27
*365 FILLER_19_3
*366 FILLER_19_39
*367 FILLER_19_51
*368 FILLER_19_55
*369 FILLER_19_57
*370 FILLER_19_69
*371 FILLER_19_81
*372 FILLER_19_93
*373 FILLER_1_105
*374 FILLER_1_111
*375 FILLER_1_117
*376 FILLER_1_123
*377 FILLER_1_131
*378 FILLER_1_135
*379 FILLER_1_15
*380 FILLER_1_155
*381 FILLER_1_161
*382 FILLER_1_167
*383 FILLER_1_169
*384 FILLER_1_181
*385 FILLER_1_186
*386 FILLER_1_27
*387 FILLER_1_3
*388 FILLER_1_39
*389 FILLER_1_51
*390 FILLER_1_55
*391 FILLER_1_57
*392 FILLER_1_69
*393 FILLER_1_81
*394 FILLER_1_93
*395 FILLER_20_109
*396 FILLER_20_121
*397 FILLER_20_133
*398 FILLER_20_139
*399 FILLER_20_141
*400 FILLER_20_15
*401 FILLER_20_153
*402 FILLER_20_165
*403 FILLER_20_177
*404 FILLER_20_189
*405 FILLER_20_27
*406 FILLER_20_29
*407 FILLER_20_3
*408 FILLER_20_41
*409 FILLER_20_53
*410 FILLER_20_65
*411 FILLER_20_77
*412 FILLER_20_83
*413 FILLER_20_85
*414 FILLER_20_97
*415 FILLER_21_107
*416 FILLER_21_111
*417 FILLER_21_113
*418 FILLER_21_125
*419 FILLER_21_137
*420 FILLER_21_149
*421 FILLER_21_15
*422 FILLER_21_161
*423 FILLER_21_167
*424 FILLER_21_169
*425 FILLER_21_181
*426 FILLER_21_189
*427 FILLER_21_27
*428 FILLER_21_3
*429 FILLER_21_35
*430 FILLER_21_40
*431 FILLER_21_49
*432 FILLER_21_55
*433 FILLER_21_59
*434 FILLER_21_71
*435 FILLER_21_83
*436 FILLER_21_95
*437 FILLER_22_109
*438 FILLER_22_121
*439 FILLER_22_133
*440 FILLER_22_139
*441 FILLER_22_141
*442 FILLER_22_15
*443 FILLER_22_153
*444 FILLER_22_165
*445 FILLER_22_177
*446 FILLER_22_189
*447 FILLER_22_27
*448 FILLER_22_29
*449 FILLER_22_3
*450 FILLER_22_41
*451 FILLER_22_53
*452 FILLER_22_65
*453 FILLER_22_77
*454 FILLER_22_83
*455 FILLER_22_85
*456 FILLER_22_97
*457 FILLER_23_105
*458 FILLER_23_111
*459 FILLER_23_113
*460 FILLER_23_125
*461 FILLER_23_137
*462 FILLER_23_149
*463 FILLER_23_15
*464 FILLER_23_161
*465 FILLER_23_167
*466 FILLER_23_169
*467 FILLER_23_181
*468 FILLER_23_189
*469 FILLER_23_27
*470 FILLER_23_3
*471 FILLER_23_39
*472 FILLER_23_51
*473 FILLER_23_55
*474 FILLER_23_57
*475 FILLER_23_69
*476 FILLER_23_81
*477 FILLER_23_93
*478 FILLER_24_109
*479 FILLER_24_121
*480 FILLER_24_133
*481 FILLER_24_139
*482 FILLER_24_141
*483 FILLER_24_15
*484 FILLER_24_153
*485 FILLER_24_165
*486 FILLER_24_177
*487 FILLER_24_189
*488 FILLER_24_27
*489 FILLER_24_29
*490 FILLER_24_3
*491 FILLER_24_41
*492 FILLER_24_53
*493 FILLER_24_65
*494 FILLER_24_77
*495 FILLER_24_83
*496 FILLER_24_85
*497 FILLER_24_97
*498 FILLER_25_105
*499 FILLER_25_111
*500 FILLER_25_113
*501 FILLER_25_125
*502 FILLER_25_137
*503 FILLER_25_149
*504 FILLER_25_15
*505 FILLER_25_161
*506 FILLER_25_167
*507 FILLER_25_169
*508 FILLER_25_181
*509 FILLER_25_189
*510 FILLER_25_27
*511 FILLER_25_3
*512 FILLER_25_39
*513 FILLER_25_51
*514 FILLER_25_55
*515 FILLER_25_57
*516 FILLER_25_69
*517 FILLER_25_81
*518 FILLER_25_93
*519 FILLER_26_109
*520 FILLER_26_121
*521 FILLER_26_133
*522 FILLER_26_139
*523 FILLER_26_141
*524 FILLER_26_15
*525 FILLER_26_153
*526 FILLER_26_165
*527 FILLER_26_177
*528 FILLER_26_183
*529 FILLER_26_186
*530 FILLER_26_27
*531 FILLER_26_29
*532 FILLER_26_3
*533 FILLER_26_41
*534 FILLER_26_53
*535 FILLER_26_65
*536 FILLER_26_77
*537 FILLER_26_83
*538 FILLER_26_85
*539 FILLER_26_97
*540 FILLER_27_109
*541 FILLER_27_11
*542 FILLER_27_113
*543 FILLER_27_125
*544 FILLER_27_137
*545 FILLER_27_141
*546 FILLER_27_153
*547 FILLER_27_161
*548 FILLER_27_167
*549 FILLER_27_17
*550 FILLER_27_171
*551 FILLER_27_179
*552 FILLER_27_186
*553 FILLER_27_25
*554 FILLER_27_29
*555 FILLER_27_3
*556 FILLER_27_41
*557 FILLER_27_53
*558 FILLER_27_57
*559 FILLER_27_65
*560 FILLER_27_71
*561 FILLER_27_83
*562 FILLER_27_85
*563 FILLER_27_97
*564 FILLER_2_103
*565 FILLER_2_106
*566 FILLER_2_126
*567 FILLER_2_130
*568 FILLER_2_136
*569 FILLER_2_15
*570 FILLER_2_157
*571 FILLER_2_163
*572 FILLER_2_175
*573 FILLER_2_187
*574 FILLER_2_27
*575 FILLER_2_29
*576 FILLER_2_3
*577 FILLER_2_41
*578 FILLER_2_53
*579 FILLER_2_65
*580 FILLER_2_77
*581 FILLER_2_83
*582 FILLER_2_85
*583 FILLER_2_97
*584 FILLER_3_105
*585 FILLER_3_111
*586 FILLER_3_113
*587 FILLER_3_117
*588 FILLER_3_131
*589 FILLER_3_146
*590 FILLER_3_15
*591 FILLER_3_152
*592 FILLER_3_158
*593 FILLER_3_166
*594 FILLER_3_169
*595 FILLER_3_181
*596 FILLER_3_189
*597 FILLER_3_27
*598 FILLER_3_3
*599 FILLER_3_39
*600 FILLER_3_51
*601 FILLER_3_55
*602 FILLER_3_57
*603 FILLER_3_69
*604 FILLER_3_81
*605 FILLER_3_93
*606 FILLER_4_109
*607 FILLER_4_11
*608 FILLER_4_121
*609 FILLER_4_133
*610 FILLER_4_139
*611 FILLER_4_143
*612 FILLER_4_151
*613 FILLER_4_154
*614 FILLER_4_166
*615 FILLER_4_17
*616 FILLER_4_178
*617 FILLER_4_25
*618 FILLER_4_29
*619 FILLER_4_3
*620 FILLER_4_41
*621 FILLER_4_53
*622 FILLER_4_65
*623 FILLER_4_77
*624 FILLER_4_83
*625 FILLER_4_85
*626 FILLER_4_97
*627 FILLER_5_105
*628 FILLER_5_111
*629 FILLER_5_113
*630 FILLER_5_125
*631 FILLER_5_137
*632 FILLER_5_149
*633 FILLER_5_15
*634 FILLER_5_161
*635 FILLER_5_167
*636 FILLER_5_169
*637 FILLER_5_181
*638 FILLER_5_189
*639 FILLER_5_27
*640 FILLER_5_3
*641 FILLER_5_39
*642 FILLER_5_51
*643 FILLER_5_55
*644 FILLER_5_57
*645 FILLER_5_69
*646 FILLER_5_81
*647 FILLER_5_93
*648 FILLER_6_121
*649 FILLER_6_133
*650 FILLER_6_139
*651 FILLER_6_141
*652 FILLER_6_15
*653 FILLER_6_153
*654 FILLER_6_165
*655 FILLER_6_177
*656 FILLER_6_189
*657 FILLER_6_27
*658 FILLER_6_29
*659 FILLER_6_3
*660 FILLER_6_41
*661 FILLER_6_53
*662 FILLER_6_65
*663 FILLER_6_77
*664 FILLER_6_83
*665 FILLER_6_85
*666 FILLER_6_93
*667 FILLER_6_97
*668 FILLER_7_105
*669 FILLER_7_111
*670 FILLER_7_113
*671 FILLER_7_125
*672 FILLER_7_137
*673 FILLER_7_149
*674 FILLER_7_15
*675 FILLER_7_161
*676 FILLER_7_167
*677 FILLER_7_169
*678 FILLER_7_181
*679 FILLER_7_189
*680 FILLER_7_27
*681 FILLER_7_3
*682 FILLER_7_39
*683 FILLER_7_51
*684 FILLER_7_55
*685 FILLER_7_57
*686 FILLER_7_69
*687 FILLER_7_81
*688 FILLER_7_93
*689 FILLER_8_109
*690 FILLER_8_121
*691 FILLER_8_133
*692 FILLER_8_139
*693 FILLER_8_141
*694 FILLER_8_15
*695 FILLER_8_153
*696 FILLER_8_165
*697 FILLER_8_177
*698 FILLER_8_189
*699 FILLER_8_27
*700 FILLER_8_29
*701 FILLER_8_3
*702 FILLER_8_41
*703 FILLER_8_45
*704 FILLER_8_48
*705 FILLER_8_54
*706 FILLER_8_60
*707 FILLER_8_66
*708 FILLER_8_78
*709 FILLER_8_85
*710 FILLER_8_97
*711 FILLER_9_108
*712 FILLER_9_115
*713 FILLER_9_119
*714 FILLER_9_122
*715 FILLER_9_128
*716 FILLER_9_134
*717 FILLER_9_146
*718 FILLER_9_15
*719 FILLER_9_158
*720 FILLER_9_166
*721 FILLER_9_169
*722 FILLER_9_181
*723 FILLER_9_189
*724 FILLER_9_27
*725 FILLER_9_3
*726 FILLER_9_33
*727 FILLER_9_36
*728 FILLER_9_44
*729 FILLER_9_52
*730 FILLER_9_60
*731 FILLER_9_66
*732 FILLER_9_72
*733 FILLER_9_84
*734 PHY_0
*735 PHY_1
*736 PHY_10
*737 PHY_11
*738 PHY_12
*739 PHY_13
*740 PHY_14
*741 PHY_15
*742 PHY_16
*743 PHY_17
*744 PHY_18
*745 PHY_19
*746 PHY_2
*747 PHY_20
*748 PHY_21
*749 PHY_22
*750 PHY_23
*751 PHY_24
*752 PHY_25
*753 PHY_26
*754 PHY_27
*755 PHY_28
*756 PHY_29
*757 PHY_3
*758 PHY_30
*759 PHY_31
*760 PHY_32
*761 PHY_33
*762 PHY_34
*763 PHY_35
*764 PHY_36
*765 PHY_37
*766 PHY_38
*767 PHY_39
*768 PHY_4
*769 PHY_40
*770 PHY_41
*771 PHY_42
*772 PHY_43
*773 PHY_44
*774 PHY_45
*775 PHY_46
*776 PHY_47
*777 PHY_48
*778 PHY_49
*779 PHY_5
*780 PHY_50
*781 PHY_51
*782 PHY_52
*783 PHY_53
*784 PHY_54
*785 PHY_55
*786 PHY_6
*787 PHY_7
*788 PHY_8
*789 PHY_9
*790 TAP_100
*791 TAP_101
*792 TAP_102
*793 TAP_103
*794 TAP_104
*795 TAP_105
*796 TAP_106
*797 TAP_107
*798 TAP_108
*799 TAP_109
*800 TAP_110
*801 TAP_111
*802 TAP_112
*803 TAP_113
*804 TAP_114
*805 TAP_115
*806 TAP_116
*807 TAP_117
*808 TAP_118
*809 TAP_119
*810 TAP_120
*811 TAP_121
*812 TAP_122
*813 TAP_123
*814 TAP_124
*815 TAP_125
*816 TAP_126
*817 TAP_127
*818 TAP_128
*819 TAP_129
*820 TAP_130
*821 TAP_131
*822 TAP_132
*823 TAP_133
*824 TAP_134
*825 TAP_135
*826 TAP_136
*827 TAP_137
*828 TAP_138
*829 TAP_139
*830 TAP_140
*831 TAP_141
*832 TAP_142
*833 TAP_143
*834 TAP_144
*835 TAP_145
*836 TAP_56
*837 TAP_57
*838 TAP_58
*839 TAP_59
*840 TAP_60
*841 TAP_61
*842 TAP_62
*843 TAP_63
*844 TAP_64
*845 TAP_65
*846 TAP_66
*847 TAP_67
*848 TAP_68
*849 TAP_69
*850 TAP_70
*851 TAP_71
*852 TAP_72
*853 TAP_73
*854 TAP_74
*855 TAP_75
*856 TAP_76
*857 TAP_77
*858 TAP_78
*859 TAP_79
*860 TAP_80
*861 TAP_81
*862 TAP_82
*863 TAP_83
*864 TAP_84
*865 TAP_85
*866 TAP_86
*867 TAP_87
*868 TAP_88
*869 TAP_89
*870 TAP_90
*871 TAP_91
*872 TAP_92
*873 TAP_93
*874 TAP_94
*875 TAP_95
*876 TAP_96
*877 TAP_97
*878 TAP_98
*879 TAP_99
*880 _16_
*881 _17_
*882 _18_
*883 _19_
*884 _20_
*885 _21_
*886 _22_
*887 _23_
*888 _24_
*889 _25_
*890 _26_
*891 _27_
*892 _28_
*893 _29_
*894 _30_
*895 _31_
*896 _32_
*897 _33_
*898 _34_
*899 _35_
*900 _36_
*901 _37_
*902 _38_
*903 _39_
*904 _40_
*905 _41_
*906 _42_
*907 _43_
*908 _44_
*909 _45_
*910 clkbuf_0_CLK
*911 clkbuf_1_0__f_CLK
*912 clkbuf_1_1__f_CLK
*913 output1
*914 output10
*915 output11
*916 output2
*917 output3
*918 output4
*919 output5
*920 output6
*921 output7
*922 output8
*923 output9
*924 repeater12

*PORTS
BYPASS[0] I
BYPASS[1] I
BYPASS[2] I
CLK I
CLK_OUT_DIV O
CLK_OUT_G O
CNTR_OUT1[0] O
CNTR_OUT1[1] O
CNTR_OUT1[2] O
CNTR_OUT2[0] O
CNTR_OUT2[1] O
CNTR_OUT2[2] O
CNTR_OUT3[0] O
CNTR_OUT3[1] O
CNTR_OUT3[2] O
EN_G I
RST_B I
SELECT_3 I

*D_NET *1 0.00566303
*CONN
*P BYPASS[0] I
*I *57:DIODE I *D sky130_fd_sc_hd__diode_2
*I *881:A0 I *D sky130_fd_sc_hd__mux2_1
*CAP
1 BYPASS[0] 0.00239485
2 *57:DIODE 0
3 *881:A0 0.000436663
4 *1:11 0.00283151
5 *881:A0 *85:DIODE 0
6 *881:A0 *881:S 0
7 *881:A0 *21:49 0
8 *881:A0 *21:65 0
9 *1:11 *118:DIODE 0
10 *1:11 *26:8 0
11 *1:11 *41:24 0
12 *1:11 *53:25 0
*RES
1 BYPASS[0] *1:11 45.1303 
2 *1:11 *881:A0 27.6393 
3 *1:11 *57:DIODE 9.3 
*END

*D_NET *2 0.004495
*CONN
*P BYPASS[1] I
*I *882:A0 I *D sky130_fd_sc_hd__mux2_1
*I *60:DIODE I *D sky130_fd_sc_hd__diode_2
*CAP
1 BYPASS[1] 0.00190741
2 *882:A0 0.000183104
3 *60:DIODE 0.000156989
4 *2:8 0.0022475
5 *882:A0 *61:DIODE 0
6 *2:8 *44:8 0
*RES
1 BYPASS[1] *2:8 31.2183 
2 *2:8 *60:DIODE 17.2107 
3 *2:8 *882:A0 17.6214 
*END

*D_NET *3 0.00460695
*CONN
*P BYPASS[2] I
*I *883:A0 I *D sky130_fd_sc_hd__mux2_1
*I *63:DIODE I *D sky130_fd_sc_hd__diode_2
*CAP
1 BYPASS[2] 0.0020023
2 *883:A0 0
3 *63:DIODE 0.00030118
4 *3:12 0.00230348
5 *63:DIODE *65:DIODE 0
6 *3:12 *65:DIODE 0
7 *3:12 *103:DIODE 0
8 *3:12 *896:A 0
*RES
1 BYPASS[2] *3:12 49.9464 
2 *3:12 *63:DIODE 15.5857 
3 *3:12 *883:A0 9.3 
*END

*D_NET *4 0.00377199
*CONN
*P CLK I
*I *120:DIODE I *D sky130_fd_sc_hd__diode_2
*I *910:A I *D sky130_fd_sc_hd__clkbuf_16
*CAP
1 CLK 0.00173925
2 *120:DIODE 0
3 *910:A 0.000124066
4 *4:14 0.00014674
5 *4:11 0.00176193
6 *4:11 *78:DIODE 0
7 *4:11 *901:CLK 0
8 *4:11 *36:11 0
9 *4:11 *37:11 0
10 *4:11 *41:8 0
11 *4:11 *41:9 0
12 *4:11 *41:21 0
13 *4:11 *41:54 0
14 *4:11 *49:10 0
15 *4:11 *49:12 0
16 *4:11 *50:8 0
*RES
1 CLK *4:11 47.5357 
2 *4:11 *4:14 5.03571 
3 *4:14 *910:A 11.8893 
4 *4:14 *120:DIODE 9.3 
*END

*D_NET *5 0.000735089
*CONN
*P CLK_OUT_DIV O
*I *913:X O *D sky130_fd_sc_hd__clkbuf_2
*CAP
1 CLK_OUT_DIV 0.000367544
2 *913:X 0.000367544
3 CLK_OUT_DIV *17:10 0
*RES
1 *913:X CLK_OUT_DIV 20.3046 
*END

*D_NET *6 0.000963807
*CONN
*P CLK_OUT_G O
*I *916:X O *D sky130_fd_sc_hd__clkbuf_2
*CAP
1 CLK_OUT_G 0.000481904
2 *916:X 0.000481904
*RES
1 *916:X CLK_OUT_G 24.5857 
*END

*D_NET *7 0.00139374
*CONN
*P CNTR_OUT1[0] O
*I *917:X O *D sky130_fd_sc_hd__clkbuf_2
*CAP
1 CNTR_OUT1[0] 0.000696869
2 *917:X 0.000696869
*RES
1 *917:X CNTR_OUT1[0] 28.925 
*END

*D_NET *8 0.00155419
*CONN
*P CNTR_OUT1[1] O
*I *918:X O *D sky130_fd_sc_hd__clkbuf_2
*CAP
1 CNTR_OUT1[1] 0.000777095
2 *918:X 0.000777095
*RES
1 *918:X CNTR_OUT1[1] 30.7464 
*END

*D_NET *9 0.000685201
*CONN
*P CNTR_OUT1[2] O
*I *919:X O *D sky130_fd_sc_hd__clkbuf_2
*CAP
1 CNTR_OUT1[2] 0.0003426
2 *919:X 0.0003426
*RES
1 *919:X CNTR_OUT1[2] 21.5321 
*END

*D_NET *10 0.000685279
*CONN
*P CNTR_OUT2[0] O
*I *920:X O *D sky130_fd_sc_hd__clkbuf_2
*CAP
1 CNTR_OUT2[0] 0.00034264
2 *920:X 0.00034264
3 CNTR_OUT2[0] *48:21 0
*RES
1 *920:X CNTR_OUT2[0] 21.5321 
*END

*D_NET *11 0.000574472
*CONN
*P CNTR_OUT2[1] O
*I *921:X O *D sky130_fd_sc_hd__clkbuf_2
*CAP
1 CNTR_OUT2[1] 0.000287236
2 *921:X 0.000287236
*RES
1 *921:X CNTR_OUT2[1] 18.4832 
*END

*D_NET *12 0.00062875
*CONN
*P CNTR_OUT2[2] O
*I *922:X O *D sky130_fd_sc_hd__clkbuf_2
*CAP
1 CNTR_OUT2[2] 0.000314375
2 *922:X 0.000314375
3 CNTR_OUT2[2] *922:A 0
*RES
1 *922:X CNTR_OUT2[2] 19.8569 
*END

*D_NET *13 0.000574385
*CONN
*P CNTR_OUT3[0] O
*I *923:X O *D sky130_fd_sc_hd__clkbuf_2
*CAP
1 CNTR_OUT3[0] 0.000287193
2 *923:X 0.000287193
*RES
1 *923:X CNTR_OUT3[0] 18.4832 
*END

*D_NET *14 0.000845731
*CONN
*P CNTR_OUT3[1] O
*I *914:X O *D sky130_fd_sc_hd__clkbuf_2
*CAP
1 CNTR_OUT3[1] 0.000422865
2 *914:X 0.000422865
3 CNTR_OUT3[1] *44:9 0
*RES
1 *914:X CNTR_OUT3[1] 23.3536 
*END

*D_NET *15 0.000842714
*CONN
*P CNTR_OUT3[2] O
*I *915:X O *D sky130_fd_sc_hd__clkbuf_2
*CAP
1 CNTR_OUT3[2] 0.000421357
2 *915:X 0.000421357
3 CNTR_OUT3[2] *48:21 0
*RES
1 *915:X CNTR_OUT3[2] 23.175 
*END

*D_NET *16 0.0027252
*CONN
*P EN_G I
*I *56:DIODE I *D sky130_fd_sc_hd__diode_2
*I *880:B I *D sky130_fd_sc_hd__and2_1
*CAP
1 EN_G 0.00114313
2 *56:DIODE 0.000219468
3 *880:B 0
4 *16:11 0.0013626
5 *56:DIODE *47:11 0
6 *16:11 *43:32 0
*RES
1 EN_G *16:11 18.5741 
2 *16:11 *880:B 9.3 
3 *16:11 *56:DIODE 13.9429 
*END

*D_NET *17 0.0076291
*CONN
*P RST_B I
*I *107:DIODE I *D sky130_fd_sc_hd__diode_2
*I *134:DIODE I *D sky130_fd_sc_hd__diode_2
*I *924:A I *D sky130_fd_sc_hd__clkbuf_2
*I *904:RESET_B I *D sky130_fd_sc_hd__dfrtp_1
*I *905:RESET_B I *D sky130_fd_sc_hd__dfrtp_1
*I *110:DIODE I *D sky130_fd_sc_hd__diode_2
*CAP
1 RST_B 0.00146623
2 *107:DIODE 0
3 *134:DIODE 0.00014075
4 *924:A 0
5 *904:RESET_B 0
6 *905:RESET_B 4.66316e-05
7 *110:DIODE 0.000183104
8 *17:46 0.000579045
9 *17:26 0.000377802
10 *17:17 0.000407151
11 *17:13 0.00182976
12 *17:10 0.00259862
13 *134:DIODE *46:10 0
14 *17:13 *900:CLK 0
15 *17:13 *42:26 0
16 *17:13 *43:17 0
17 *17:13 *43:27 0
18 *17:13 *43:42 0
19 *17:17 *42:26 0
20 *17:46 *76:DIODE 0
21 *17:46 *109:DIODE 0
22 CLK_OUT_DIV *17:10 0
*RES
1 RST_B *17:10 41.0179 
2 *17:10 *17:13 30.125 
3 *17:13 *17:17 10.4286 
4 *17:17 *17:26 7.94643 
5 *17:26 *110:DIODE 13.1214 
6 *17:26 *905:RESET_B 0.973214 
7 *17:17 *904:RESET_B 4.5 
8 *17:13 *17:46 9.17857 
9 *17:46 *924:A 9.3 
10 *17:46 *134:DIODE 12.3 
11 *17:13 *107:DIODE 9.3 
*END

*D_NET *18 0.00676824
*CONN
*P SELECT_3 I
*I *59:DIODE I *D sky130_fd_sc_hd__diode_2
*I *882:S I *D sky130_fd_sc_hd__mux2_1
*I *62:DIODE I *D sky130_fd_sc_hd__diode_2
*I *883:S I *D sky130_fd_sc_hd__mux2_1
*I *65:DIODE I *D sky130_fd_sc_hd__diode_2
*I *881:S I *D sky130_fd_sc_hd__mux2_1
*CAP
1 SELECT_3 0.0015518
2 *59:DIODE 0
3 *882:S 0
4 *62:DIODE 9.79704e-05
5 *883:S 0
6 *65:DIODE 0.000255366
7 *881:S 6.50276e-05
8 *18:59 0.000686543
9 *18:40 0.000634903
10 *18:31 0.00115782
11 *18:22 0.000510872
12 *18:17 0.00180794
13 *62:DIODE *22:28 0
14 *65:DIODE *883:A1 0
15 *65:DIODE *42:93 0
16 *18:17 *58:DIODE 0
17 *18:17 *901:CLK 0
18 *18:17 *41:54 0
19 *18:22 *58:DIODE 0
20 *18:22 *901:CLK 0
21 *18:31 *21:22 0
22 *18:40 *883:A1 0
23 *18:40 *23:11 0
24 *18:59 *895:B 0
25 *18:59 *903:RESET_B 0
26 *18:59 *22:33 0
27 *63:DIODE *65:DIODE 0
28 *881:A0 *881:S 0
29 *3:12 *65:DIODE 0
*RES
1 SELECT_3 *18:17 34.5416 
2 *18:17 *18:22 10.2321 
3 *18:22 *881:S 15.1571 
4 *18:22 *18:31 4.375 
5 *18:31 *18:40 12.5893 
6 *18:40 *65:DIODE 23.7643 
7 *18:40 *883:S 9.3 
8 *18:31 *18:59 17.125 
9 *18:59 *62:DIODE 20.4786 
10 *18:59 *882:S 9.3 
11 *18:17 *59:DIODE 9.3 
*END

*D_NET *21 0.00448585
*CONN
*I *85:DIODE I *D sky130_fd_sc_hd__diode_2
*I *68:DIODE I *D sky130_fd_sc_hd__diode_2
*I *881:A1 I *D sky130_fd_sc_hd__mux2_1
*I *58:DIODE I *D sky130_fd_sc_hd__diode_2
*I *896:A I *D sky130_fd_sc_hd__or2_1
*I *87:DIODE I *D sky130_fd_sc_hd__diode_2
*I *895:A I *D sky130_fd_sc_hd__nand2_1
*I *886:A I *D sky130_fd_sc_hd__clkinv_2
*I *901:Q O *D sky130_fd_sc_hd__dfrtp_1
*CAP
1 *85:DIODE 0.000309343
2 *68:DIODE 0
3 *881:A1 0
4 *58:DIODE 0.000488954
5 *896:A 6.85346e-05
6 *87:DIODE 0.000124066
7 *895:A 0.000124066
8 *886:A 4.53482e-05
9 *901:Q 0.000315119
10 *21:65 0.000469773
11 *21:49 0.000693234
12 *21:31 0.000278273
13 *21:22 0.000507813
14 *21:19 0.000521393
15 *21:10 0.000539935
16 *58:DIODE *96:DIODE 0
17 *85:DIODE *101:DIODE 0
18 *85:DIODE *46:66 0
19 *87:DIODE *39:10 0
20 *886:A *31:10 0
21 *886:A *54:12 0
22 *895:A *903:RESET_B 0
23 *896:A *22:10 0
24 *896:A *39:10 0
25 *21:10 *901:RESET_B 0
26 *21:10 *53:25 0
27 *21:19 *31:10 0
28 *21:19 *54:12 0
29 *21:22 *22:10 0
30 *21:31 *103:DIODE 0
31 *21:31 *22:10 0
32 *881:A0 *85:DIODE 0
33 *881:A0 *21:49 0
34 *881:A0 *21:65 0
35 *3:12 *896:A 0
36 *18:17 *58:DIODE 0
37 *18:22 *58:DIODE 0
38 *18:31 *21:22 0
*RES
1 *901:Q *21:10 25.0857 
2 *21:10 *886:A 10.2464 
3 *21:10 *21:19 3.83929 
4 *21:19 *21:22 11.3036 
5 *21:22 *895:A 16.3893 
6 *21:22 *21:31 1.94643 
7 *21:31 *87:DIODE 16.3893 
8 *21:31 *896:A 15.3714 
9 *21:19 *21:49 0.946429 
10 *21:49 *58:DIODE 28.8536 
11 *21:49 *881:A1 9.3 
12 *21:49 *21:65 3.41071 
13 *21:65 *68:DIODE 9.3 
14 *21:65 *85:DIODE 25.0679 
*END

*D_NET *22 0.00308529
*CONN
*I *86:DIODE I *D sky130_fd_sc_hd__diode_2
*I *895:B I *D sky130_fd_sc_hd__nand2_1
*I *61:DIODE I *D sky130_fd_sc_hd__diode_2
*I *882:A1 I *D sky130_fd_sc_hd__mux2_1
*I *88:DIODE I *D sky130_fd_sc_hd__diode_2
*I *896:B I *D sky130_fd_sc_hd__or2_1
*I *902:Q O *D sky130_fd_sc_hd__dfrtp_1
*CAP
1 *86:DIODE 0
2 *895:B 0.000220965
3 *61:DIODE 0.000199789
4 *882:A1 0
5 *88:DIODE 0
6 *896:B 2.56688e-05
7 *902:Q 0.000369945
8 *22:33 0.000452962
9 *22:28 0.000557079
10 *22:25 0.000207005
11 *22:19 0.000390165
12 *22:10 0.000661713
13 *895:B *903:RESET_B 0
14 *895:B *46:66 0
15 *896:B *39:10 0
16 *22:19 *39:10 0
17 *22:28 *39:10 0
18 *62:DIODE *22:28 0
19 *882:A0 *61:DIODE 0
20 *896:A *22:10 0
21 *18:59 *895:B 0
22 *18:59 *22:33 0
23 *21:22 *22:10 0
24 *21:31 *22:10 0
*RES
1 *902:Q *22:10 26.4607 
2 *22:10 *896:B 9.83571 
3 *22:10 *22:19 5.67857 
4 *22:19 *88:DIODE 9.3 
5 *22:19 *22:25 2.58929 
6 *22:25 *22:28 6.44643 
7 *22:28 *22:33 9.875 
8 *22:33 *882:A1 9.3 
9 *22:33 *61:DIODE 13.5321 
10 *22:28 *895:B 18.4429 
11 *22:25 *86:DIODE 9.3 
*END

*D_NET *23 0.00174009
*CONN
*I *898:A I *D sky130_fd_sc_hd__xnor2_1
*I *883:A1 I *D sky130_fd_sc_hd__mux2_1
*I *91:DIODE I *D sky130_fd_sc_hd__diode_2
*I *64:DIODE I *D sky130_fd_sc_hd__diode_2
*I *903:Q O *D sky130_fd_sc_hd__dfrtp_1
*CAP
1 *898:A 0
2 *883:A1 0.000261822
3 *91:DIODE 0.000239147
4 *64:DIODE 5.89699e-05
5 *903:Q 7.22426e-05
6 *23:11 0.000535981
7 *23:8 0.000571928
8 *64:DIODE *32:9 0
9 *64:DIODE *38:13 0
10 *91:DIODE *90:DIODE 0
11 *23:11 *898:B 0
12 *65:DIODE *883:A1 0
13 *18:40 *883:A1 0
14 *18:40 *23:11 0
*RES
1 *903:Q *23:8 19.9429 
2 *23:8 *23:11 4.96429 
3 *23:11 *64:DIODE 19.6393 
4 *23:11 *91:DIODE 14.3536 
5 *23:8 *883:A1 14.7643 
6 *23:8 *898:A 9.3 
*END

*D_NET *24 0.00052874
*CONN
*I *900:D I *D sky130_fd_sc_hd__dfxtp_1
*I *95:DIODE I *D sky130_fd_sc_hd__diode_2
*I *884:Y O *D sky130_fd_sc_hd__clkinv_2
*CAP
1 *900:D 0
2 *95:DIODE 0.000161499
3 *884:Y 0.000102871
4 *24:11 0.00026437
*RES
1 *884:Y *24:11 20.6437 
2 *24:11 *95:DIODE 12.6705 
3 *24:11 *900:D 9.3 
*END

*D_NET *25 0.000461833
*CONN
*I *115:DIODE I *D sky130_fd_sc_hd__diode_2
*I *907:D I *D sky130_fd_sc_hd__dfxtp_1
*I *885:Y O *D sky130_fd_sc_hd__clkinv_2
*CAP
1 *115:DIODE 9.89846e-05
2 *907:D 4.72733e-05
3 *885:Y 8.46584e-05
4 *25:8 0.000230916
5 *907:D *41:9 0
6 *25:8 *48:10 0
7 *25:8 *48:11 0
*RES
1 *885:Y *25:8 15.675 
2 *25:8 *907:D 14.7866 
3 *25:8 *115:DIODE 16.05 
*END

*D_NET *26 0.00108663
*CONN
*I *117:DIODE I *D sky130_fd_sc_hd__diode_2
*I *908:D I *D sky130_fd_sc_hd__dfxtp_1
*I *893:X O *D sky130_fd_sc_hd__and2_1
*CAP
1 *117:DIODE 0.000203023
2 *908:D 7.91454e-06
3 *893:X 0.000332377
4 *26:8 0.000543314
5 *26:8 *81:DIODE 0
6 *26:8 *36:19 0
7 *26:8 *36:24 0
8 *1:11 *26:8 0
*RES
1 *893:X *26:8 20.9786 
2 *26:8 *908:D 13.9652 
3 *26:8 *117:DIODE 18.4786 
*END

*D_NET *27 0.00095189
*CONN
*I *119:DIODE I *D sky130_fd_sc_hd__diode_2
*I *909:D I *D sky130_fd_sc_hd__dfxtp_1
*I *894:Y O *D sky130_fd_sc_hd__xnor2_1
*CAP
1 *119:DIODE 0.000158505
2 *909:D 0
3 *894:Y 0.00031744
4 *27:11 0.000475945
5 *119:DIODE *50:22 0
6 *27:11 *894:B 0
7 *27:11 *36:24 0
8 *27:11 *50:22 0
*RES
1 *894:Y *27:11 25.233 
2 *27:11 *909:D 9.3 
3 *27:11 *119:DIODE 12.6705 
*END

*D_NET *28 0.000606552
*CONN
*I *106:DIODE I *D sky130_fd_sc_hd__diode_2
*I *904:D I *D sky130_fd_sc_hd__dfrtp_1
*I *899:Y O *D sky130_fd_sc_hd__clkinv_2
*CAP
1 *106:DIODE 0
2 *904:D 0.00017921
3 *899:Y 0.000124066
4 *28:5 0.000303276
*RES
1 *899:Y *28:5 11.8893 
2 *28:5 *904:D 22.3714 
3 *28:5 *106:DIODE 9.3 
*END

*D_NET *29 0.00109332
*CONN
*I *109:DIODE I *D sky130_fd_sc_hd__diode_2
*I *905:D I *D sky130_fd_sc_hd__dfrtp_1
*I *889:X O *D sky130_fd_sc_hd__and2_1
*CAP
1 *109:DIODE 0.000287211
2 *905:D 0.00025945
3 *889:X 0
4 *29:5 0.000546662
5 *109:DIODE *76:DIODE 0
6 *109:DIODE *888:B 0
7 *109:DIODE *34:21 0
8 *905:D *906:CLK 0
9 *17:46 *109:DIODE 0
*RES
1 *889:X *29:5 13.8 
2 *29:5 *905:D 19.4429 
3 *29:5 *109:DIODE 20.1571 
*END

*D_NET *30 0.000580828
*CONN
*I *906:D I *D sky130_fd_sc_hd__dfrtp_1
*I *112:DIODE I *D sky130_fd_sc_hd__diode_2
*I *890:Y O *D sky130_fd_sc_hd__xnor2_1
*CAP
1 *906:D 0
2 *112:DIODE 0.000111341
3 *890:Y 0.000179073
4 *30:6 0.000290414
5 *112:DIODE *70:DIODE 0
*RES
1 *890:Y *30:6 17.8714 
2 *30:6 *112:DIODE 16.2821 
3 *30:6 *906:D 13.8 
*END

*D_NET *31 0.000890987
*CONN
*I *97:DIODE I *D sky130_fd_sc_hd__diode_2
*I *901:D I *D sky130_fd_sc_hd__dfrtp_1
*I *886:Y O *D sky130_fd_sc_hd__clkinv_2
*CAP
1 *97:DIODE 0.000202783
2 *901:D 0
3 *886:Y 0.00024271
4 *31:10 0.000445493
5 *97:DIODE *53:25 0
6 *886:A *31:10 0
7 *21:19 *31:10 0
*RES
1 *886:Y *31:10 23.55 
2 *31:10 *901:D 9.3 
3 *31:10 *97:DIODE 13.5321 
*END

*D_NET *32 0.00149943
*CONN
*I *902:D I *D sky130_fd_sc_hd__dfrtp_1
*I *100:DIODE I *D sky130_fd_sc_hd__diode_2
*I *897:X O *D sky130_fd_sc_hd__and2_1
*CAP
1 *902:D 0
2 *100:DIODE 0.000294764
3 *897:X 0.000454952
4 *32:9 0.000749717
5 *100:DIODE *902:CLK 0
6 *100:DIODE *42:93 0
7 *32:9 *46:45 0
8 *32:9 *46:55 0
9 *32:9 *46:66 0
10 *64:DIODE *32:9 0
*RES
1 *897:X *32:9 27.8714 
2 *32:9 *100:DIODE 24.5857 
3 *32:9 *902:D 9.3 
*END

*D_NET *33 0.0010548
*CONN
*I *103:DIODE I *D sky130_fd_sc_hd__diode_2
*I *903:D I *D sky130_fd_sc_hd__dfrtp_1
*I *898:Y O *D sky130_fd_sc_hd__xnor2_1
*CAP
1 *103:DIODE 0.000193634
2 *903:D 0.000143745
3 *898:Y 0.00019002
4 *33:8 0.000527399
5 *3:12 *103:DIODE 0
6 *21:31 *103:DIODE 0
*RES
1 *898:Y *33:8 17.925 
2 *33:8 *903:D 16.8 
3 *33:8 *103:DIODE 18.0321 
*END

*D_NET *34 0.00138168
*CONN
*I *76:DIODE I *D sky130_fd_sc_hd__diode_2
*I *890:B I *D sky130_fd_sc_hd__xnor2_1
*I *73:DIODE I *D sky130_fd_sc_hd__diode_2
*I *889:A I *D sky130_fd_sc_hd__and2_1
*I *887:Y O *D sky130_fd_sc_hd__nand2_1
*CAP
1 *76:DIODE 9.52765e-05
2 *890:B 0.000124066
3 *73:DIODE 0.000143745
4 *889:A 0
5 *887:Y 0.000218132
6 *34:21 0.000328965
7 *34:10 0.000143745
8 *34:8 0.000327755
9 *73:DIODE *42:5 0
10 *890:B *54:13 0
11 *34:8 *70:DIODE 0
12 *34:21 *888:B 0
13 *34:21 *54:12 0
14 *109:DIODE *76:DIODE 0
15 *109:DIODE *34:21 0
16 *17:46 *76:DIODE 0
*RES